# generated using pymatgen
data_Y2O3
_symmetry_space_group_name_H-M   'P 1'
_cell_length_a   10.60782436
_cell_length_b   10.60782436
_cell_length_c   10.60782436
_cell_angle_alpha   90.00000000
_cell_angle_beta   90.00000000
_cell_angle_gamma   90.00000000
_symmetry_Int_Tables_number   1
_chemical_formula_structural   Y2O3
_chemical_formula_sum   'Y32 O48'
_cell_volume   1193.65538183
_cell_formula_units_Z   16
loop_
 _symmetry_equiv_pos_site_id
 _symmetry_equiv_pos_as_xyz
  1  'x, y, z'
loop_
 _atom_type_symbol
 _atom_type_oxidation_number
  Y3+  3.0
  O2-  -2.0
loop_
 _atom_site_type_symbol
 _atom_site_label
 _atom_site_symmetry_multiplicity
 _atom_site_fract_x
 _atom_site_fract_y
 _atom_site_fract_z
 _atom_site_occupancy
  Y3+  Y0  1  0.25000000  0.21745644  0.50000000  1
  Y3+  Y1  1  0.28254356  0.50000000  0.75000000  1
  Y3+  Y2  1  0.00000000  0.75000000  0.71745644  1
  Y3+  Y3  1  0.71745644  0.00000000  0.75000000  1
  Y3+  Y4  1  0.50000000  0.75000000  0.28254356  1
  Y3+  Y5  1  0.25000000  0.78254356  0.00000000  1
  Y3+  Y6  1  0.75000000  0.78254356  0.50000000  1
  Y3+  Y7  1  0.71745644  0.50000000  0.25000000  1
  Y3+  Y8  1  0.00000000  0.25000000  0.28254356  1
  Y3+  Y9  1  0.28254356  0.00000000  0.25000000  1
  Y3+  Y10  1  0.50000000  0.25000000  0.71745644  1
  Y3+  Y11  1  0.75000000  0.21745644  0.00000000  1
  Y3+  Y12  1  0.00000000  0.00000000  0.50000000  1
  Y3+  Y13  1  0.50000000  0.50000000  0.50000000  1
  Y3+  Y14  1  0.50000000  0.00000000  0.00000000  1
  Y3+  Y15  1  0.50000000  0.00000000  0.50000000  1
  Y3+  Y16  1  0.75000000  0.71745644  0.00000000  1
  Y3+  Y17  1  0.78254356  0.00000000  0.25000000  1
  Y3+  Y18  1  0.50000000  0.25000000  0.21745644  1
  Y3+  Y19  1  0.21745644  0.50000000  0.25000000  1
  Y3+  Y20  1  0.00000000  0.25000000  0.78254356  1
  Y3+  Y21  1  0.75000000  0.28254356  0.50000000  1
  Y3+  Y22  1  0.25000000  0.28254356  0.00000000  1
  Y3+  Y23  1  0.21745644  0.00000000  0.75000000  1
  Y3+  Y24  1  0.50000000  0.75000000  0.78254356  1
  Y3+  Y25  1  0.78254356  0.50000000  0.75000000  1
  Y3+  Y26  1  0.00000000  0.75000000  0.21745644  1
  Y3+  Y27  1  0.25000000  0.71745644  0.50000000  1
  Y3+  Y28  1  0.50000000  0.50000000  0.00000000  1
  Y3+  Y29  1  0.00000000  0.00000000  0.00000000  1
  Y3+  Y30  1  0.00000000  0.50000000  0.50000000  1
  Y3+  Y31  1  0.00000000  0.50000000  0.00000000  1
  O2-  O32  1  0.40172185  0.35921023  0.87006003  1
  O2-  O33  1  0.59827815  0.14078977  0.87006003  1
  O2-  O34  1  0.40172185  0.64078977  0.62993997  1
  O2-  O35  1  0.37006003  0.09827815  0.64078977  1
  O2-  O36  1  0.35921023  0.87006003  0.40172185  1
  O2-  O37  1  0.85921023  0.62993997  0.59827815  1
  O2-  O38  1  0.12993997  0.09827815  0.35921023  1
  O2-  O39  1  0.14078977  0.87006003  0.59827815  1
  O2-  O40  1  0.12993997  0.90172185  0.14078977  1
  O2-  O41  1  0.64078977  0.62993997  0.40172185  1
  O2-  O42  1  0.37006003  0.90172185  0.85921023  1
  O2-  O43  1  0.59827815  0.85921023  0.62993997  1
  O2-  O44  1  0.59827815  0.64078977  0.12993997  1
  O2-  O45  1  0.40172185  0.85921023  0.12993997  1
  O2-  O46  1  0.59827815  0.35921023  0.37006003  1
  O2-  O47  1  0.62993997  0.90172185  0.35921023  1
  O2-  O48  1  0.40172185  0.14078977  0.37006003  1
  O2-  O49  1  0.62993997  0.09827815  0.14078977  1
  O2-  O50  1  0.35921023  0.37006003  0.59827815  1
  O2-  O51  1  0.87006003  0.09827815  0.85921023  1
  O2-  O52  1  0.85921023  0.12993997  0.40172185  1
  O2-  O53  1  0.87006003  0.90172185  0.64078977  1
  O2-  O54  1  0.14078977  0.37006003  0.40172185  1
  O2-  O55  1  0.64078977  0.12993997  0.59827815  1
  O2-  O56  1  0.90172185  0.85921023  0.37006003  1
  O2-  O57  1  0.09827815  0.64078977  0.37006003  1
  O2-  O58  1  0.90172185  0.14078977  0.12993997  1
  O2-  O59  1  0.87006003  0.59827815  0.14078977  1
  O2-  O60  1  0.85921023  0.37006003  0.90172185  1
  O2-  O61  1  0.35921023  0.12993997  0.09827815  1
  O2-  O62  1  0.62993997  0.59827815  0.85921023  1
  O2-  O63  1  0.64078977  0.37006003  0.09827815  1
  O2-  O64  1  0.62993997  0.40172185  0.64078977  1
  O2-  O65  1  0.14078977  0.12993997  0.90172185  1
  O2-  O66  1  0.87006003  0.40172185  0.35921023  1
  O2-  O67  1  0.09827815  0.35921023  0.12993997  1
  O2-  O68  1  0.09827815  0.14078977  0.62993997  1
  O2-  O69  1  0.90172185  0.35921023  0.62993997  1
  O2-  O70  1  0.09827815  0.85921023  0.87006003  1
  O2-  O71  1  0.12993997  0.40172185  0.85921023  1
  O2-  O72  1  0.90172185  0.64078977  0.87006003  1
  O2-  O73  1  0.12993997  0.59827815  0.64078977  1
  O2-  O74  1  0.85921023  0.87006003  0.09827815  1
  O2-  O75  1  0.37006003  0.59827815  0.35921023  1
  O2-  O76  1  0.35921023  0.62993997  0.90172185  1
  O2-  O77  1  0.37006003  0.40172185  0.14078977  1
  O2-  O78  1  0.64078977  0.87006003  0.90172185  1
  O2-  O79  1  0.14078977  0.62993997  0.09827815  1
